Version 4
SHEET 1 1696 724
WIRE 1136 80 1136 32
WIRE 1264 80 1264 32
WIRE 1408 80 1408 32
WIRE 112 144 32 144
WIRE 272 144 192 144
WIRE 720 176 464 176
WIRE 880 176 784 176
WIRE 1136 208 1136 160
WIRE 1264 208 1264 160
WIRE 1408 208 1408 160
WIRE 144 272 144 240
WIRE -240 288 -352 288
WIRE -128 288 -160 288
WIRE 32 288 32 144
WIRE 32 288 -128 288
WIRE 112 288 32 288
WIRE 752 288 752 256
WIRE 272 304 272 144
WIRE 272 304 176 304
WIRE 336 304 272 304
WIRE 464 304 464 176
WIRE 464 304 416 304
WIRE 512 304 464 304
WIRE 624 304 592 304
WIRE 720 304 624 304
WIRE 112 320 64 320
WIRE 880 320 880 176
WIRE 880 320 784 320
WIRE 928 320 880 320
WIRE 1056 320 1008 320
WIRE 1120 320 1056 320
WIRE -128 336 -128 288
WIRE 624 336 624 304
WIRE 720 336 672 336
WIRE 144 368 144 336
WIRE 752 384 752 352
WIRE 1056 384 1056 320
WIRE 624 432 624 400
WIRE -128 448 -128 400
WIRE 672 448 672 336
WIRE 880 448 880 320
WIRE 880 448 672 448
WIRE 1056 480 1056 448
FLAG 144 368 0
FLAG 1136 32 3V3
FLAG 1136 208 0
FLAG 144 240 3V3
FLAG -128 448 0
FLAG 1264 32 1V8195
FLAG 1264 208 0
FLAG -352 288 2V5
FLAG 64 320 1V8195
FLAG 1408 32 2V5
FLAG 1408 208 0
FLAG 752 256 0
FLAG 752 384 3V3
FLAG 624 432 0
FLAG 1056 480 0
FLAG 1120 320 Vout
SYMBOL voltage 1136 64 R0
WINDOW 123 0 0 Left 0
WINDOW 39 0 0 Left 0
SYMATTR InstName V2
SYMATTR Value 3.3
SYMBOL res 208 128 R90
WINDOW 0 0 56 VBottom 2
WINDOW 3 32 56 VTop 2
SYMATTR InstName R1
SYMATTR Value 2Meg
SYMATTR SpiceLine tol=0.1 pwr=0.25
SYMBOL res -144 272 R90
WINDOW 0 0 56 VBottom 2
WINDOW 3 32 56 VTop 2
SYMATTR InstName R2
SYMATTR Value 10k
SYMBOL cap -144 336 R0
SYMATTR InstName C1
SYMATTR Value 10n
SYMATTR SpiceLine V=10
SYMBOL voltage 1264 64 R0
WINDOW 123 0 0 Left 0
WINDOW 39 0 0 Left 0
SYMATTR InstName V3
SYMATTR Value 1.8195
SYMBOL OpAmps\\LTC6241 144 304 R0
SYMATTR InstName U1
SYMBOL voltage 1408 64 R0
WINDOW 123 24 44 Left 2
WINDOW 39 0 0 Left 0
SYMATTR Value2 AC AC 1
SYMATTR InstName AC1
SYMATTR Value SINE(1 1 1k)
SYMBOL OpAmps\\LTC6241 752 320 M180
SYMATTR InstName U2
SYMBOL res 496 320 R270
WINDOW 0 32 56 VTop 2
WINDOW 3 0 56 VBottom 2
SYMATTR InstName R4
SYMATTR Value 10k
SYMBOL res 320 320 R270
WINDOW 0 32 56 VTop 2
WINDOW 3 0 56 VBottom 2
SYMATTR InstName R5
SYMATTR Value 10k
SYMBOL cap 608 336 R0
SYMATTR InstName C3
SYMATTR Value 10µ
SYMBOL cap 784 160 R90
WINDOW 0 0 32 VBottom 2
WINDOW 3 32 32 VTop 2
SYMATTR InstName C4
SYMATTR Value 10µ
SYMBOL res 1024 304 R90
WINDOW 0 0 56 VBottom 2
WINDOW 3 32 56 VTop 2
SYMATTR InstName R6
SYMATTR Value 10k
SYMBOL cap 1040 384 R0
SYMATTR InstName C5
SYMATTR Value 10µ
TEXT -216 224 Left 2 ;Fc = 1.5kHz
TEXT 24 40 Left 2 ;A = -2M
TEXT 24 72 Left 2 ;V(DO) = 1.82 - I(in) * 2M
TEXT -408 504 Left 2 !.ac dec 1000 10m 100Meg
TEXT 464 160 Left 2 ;Second Order
TEXT 472 368 Left 2 ;First Order
TEXT 944 264 Left 2 ;Third Order
TEXT 456 40 Left 2 ;fc = 1/ (2*pi* RC) [Hz]
TEXT 456 72 Left 2 ;Fc = 1.6Hz
