Version 4
SHEET 1 2248 680
WIRE 96 48 16 48
WIRE 256 48 176 48
WIRE 1712 112 1712 48
WIRE 848 128 848 80
WIRE 960 128 960 80
WIRE 1088 128 1088 80
WIRE 1200 128 1200 80
WIRE 1312 128 1312 80
WIRE 128 176 128 144
WIRE -256 192 -448 192
WIRE -144 192 -176 192
WIRE 16 192 16 48
WIRE 16 192 -144 192
WIRE 96 192 16 192
WIRE 256 208 256 48
WIRE 256 208 160 208
WIRE 352 208 256 208
WIRE 464 208 432 208
WIRE 544 208 464 208
WIRE 96 224 48 224
WIRE -144 240 -144 192
WIRE 1712 240 1712 192
WIRE 464 256 464 208
WIRE 848 256 848 208
WIRE 960 256 960 208
WIRE 1088 256 1088 208
WIRE 1200 256 1200 208
WIRE 1312 256 1312 208
WIRE 128 272 128 240
WIRE -144 352 -144 304
WIRE 464 352 464 320
FLAG 128 272 0
FLAG 848 80 3V3
FLAG 1088 256 0
FLAG 848 256 0
FLAG 128 144 3V3
FLAG -144 352 0
FLAG 464 352 0
FLAG 960 80 1V8195
FLAG 960 256 0
FLAG 544 208 Vout
FLAG 1200 256 0
FLAG 1200 80 Vres
FLAG 48 224 1V8195
FLAG 1312 80 2V5
FLAG 1312 256 0
FLAG 1088 80 2VDC5
FLAG 1712 48 Iin
FLAG 1712 240 0
FLAG -448 192 Iin
SYMBOL voltage 1088 112 R0
WINDOW 123 0 0 Left 0
WINDOW 39 0 0 Left 0
SYMATTR InstName V2
SYMATTR Value 2.5
SYMBOL voltage 848 112 R0
WINDOW 123 0 0 Left 0
WINDOW 39 0 0 Left 0
SYMATTR InstName V1
SYMATTR Value 3.3
SYMBOL res 192 32 R90
WINDOW 0 0 56 VBottom 2
WINDOW 3 32 56 VTop 2
SYMATTR InstName R1
SYMATTR Value 2Meg
SYMATTR SpiceLine tol=0.1 pwr=0.25
SYMBOL res -160 176 R90
WINDOW 0 0 56 VBottom 2
WINDOW 3 32 56 VTop 2
SYMATTR InstName R2
SYMATTR Value 10k
SYMBOL cap -160 240 R0
SYMATTR InstName C1
SYMATTR Value 10n
SYMATTR SpiceLine V=10
SYMBOL res 448 192 R90
WINDOW 0 0 56 VBottom 2
WINDOW 3 32 56 VTop 2
SYMATTR InstName R3
SYMATTR Value 10k
SYMATTR SpiceLine tol=1 pwr=0.25
SYMBOL cap 448 256 R0
SYMATTR InstName C2
SYMATTR Value 10µ
SYMATTR SpiceLine V=10
SYMBOL voltage 960 112 R0
WINDOW 123 0 0 Left 0
WINDOW 39 0 0 Left 0
SYMATTR InstName V3
SYMATTR Value 1.8195
SYMBOL voltage 1200 112 R0
WINDOW 123 0 0 Left 0
WINDOW 39 0 0 Left 0
SYMATTR InstName V4
SYMATTR Value 1Meg
SYMBOL OpAmps\\LTC6241 128 208 R0
SYMATTR InstName U4
SYMBOL voltage 1312 112 R0
WINDOW 123 24 44 Left 2
WINDOW 39 0 0 Left 0
SYMATTR Value2 AC AC 1
SYMATTR InstName AC2
SYMATTR Value ""
SYMBOL current 1712 192 R180
WINDOW 0 24 80 Left 2
WINDOW 3 24 0 Left 2
WINDOW 123 24 -28 Left 2
WINDOW 39 0 0 Left 0
SYMATTR InstName AC1
SYMATTR Value SINE(345 335 1k)
SYMATTR Value2 AC AC
TEXT -232 128 Left 2 ;Fc = 1.5kHz
TEXT 376 144 Left 2 ;Fc = 1.6Hz
TEXT 8 -56 Left 2 ;A = -2M
TEXT 8 -24 Left 2 ;V(DO) = 1.82 - I(in) * 2M
TEXT -408 128 Left 2 ;DO_res
TEXT -560 360 Left 2 !.ac dec 1000 100m 100Meg
